TEST_STATUS=PASS_WITH_WARNINGS
test_id=_test_unit_gradient_unsat
pressure_check=PASS
saturation_check=PASS
flux_check=PASS
solver_check=PASS
warning_check=WARN
raw_max_abs_pressure_error_pa=0
max_abs_pressure_error_pa=0
pressure_report_zero_threshold_pa=10
pressure_abs_tolerance_pa=10
saturation_min=0.4925892
saturation_max=0.4925892
solver_error_count=0
solver_warning_count=1
solver_diverged=false
solver_cuts=0
snes_diverged_count=0
allow_solver_cuts=FALSE
warning_count=1
expected_warning_count=1
unexpected_warning_count=0
mualem_vg_without_smooth_warning=true
mualem_smooth_warning_policy=warn_for_unsaturated_test
direct_flux_output_probe=AVAILABLE
direct_flux_output_available=true
direct_flux_output_file=pflotran-vel-000.tec
output_file=pflotran-041.tec
comparison_points=80
max_abs_saturation_error=3.22671758757e-08
numerical_pressure_slope_pa_m=0
analytical_pressure_slope_pa_m=0
q_from_gradient_m_s=-4.28491126446e-09
q_error_m_s=0
flux_observation_method=gradient_reconstruction
kr_const=0.000856982252892
k_eff_m_s=4.28491126446e-09
q_expected_m_s=-4.28491126446e-09
q_direct_m_s=-4.28358333333e-09
q_direct_error_m_s=1.32793112532e-12
direct_flux_output_note=PFLOTRAN velocity output parsed
